Version 4
SHEET 1 2208 1160
WIRE 368 -960 368 -1024
WIRE 576 -960 368 -960
WIRE 576 -928 576 -960
WIRE 304 -912 304 -1024
WIRE 320 -912 304 -912
WIRE 560 -912 320 -912
WIRE 736 -896 592 -896
WIRE 944 -896 736 -896
WIRE 208 -880 208 -1024
WIRE 288 -880 208 -880
WIRE 544 -880 288 -880
WIRE 560 -880 560 -912
WIRE 592 -880 592 -896
WIRE 432 -864 32 -864
WIRE 368 -848 368 -960
WIRE 368 -848 352 -848
WIRE 432 -848 432 -864
WIRE 512 -848 432 -848
WIRE 512 -832 -32 -832
WIRE 512 -816 -112 -816
WIRE 512 -800 -208 -800
WIRE 784 -800 624 -800
WIRE 512 -784 -272 -784
WIRE 512 -768 -320 -768
WIRE 512 -752 -384 -752
WIRE 512 -736 -448 -736
WIRE 560 -688 560 -704
WIRE 720 -688 560 -688
WIRE 944 -656 944 -896
WIRE 352 -624 352 -848
WIRE 576 -624 352 -624
WIRE 320 -608 320 -912
WIRE 560 -608 320 -608
WIRE 784 -608 784 -800
WIRE 896 -608 784 -608
WIRE 896 -592 768 -592
WIRE 1152 -592 1008 -592
WIRE 288 -576 288 -880
WIRE 544 -576 288 -576
WIRE 896 -576 864 -576
WIRE 576 -496 576 -624
WIRE 736 -464 736 -896
WIRE 736 -464 592 -464
WIRE 864 -464 864 -576
WIRE 544 -448 544 -576
WIRE 560 -448 560 -608
WIRE 592 -448 592 -464
WIRE 512 -416 -448 -416
WIRE 512 -400 -384 -400
WIRE 512 -384 -320 -384
WIRE 512 -368 -272 -368
WIRE 768 -368 768 -592
WIRE 768 -368 624 -368
WIRE 512 -352 -208 -352
WIRE 512 -336 -112 -336
WIRE 512 -320 -32 -320
WIRE 512 -304 32 -304
WIRE 592 -272 560 -272
WIRE 720 -256 720 -688
WIRE 944 -256 944 -528
WIRE 944 -256 720 -256
WIRE 592 -240 592 -272
WIRE 720 -240 720 -256
WIRE 720 -240 592 -240
FLAG 208 -1024 S0
IOPIN 208 -1024 In
FLAG 304 -1024 S1
IOPIN 304 -1024 In
FLAG 368 -1024 S2
IOPIN 368 -1024 In
FLAG 864 -464 S3
IOPIN 864 -464 In
FLAG 32 -864 I0
IOPIN 32 -864 In
FLAG -448 -416 I1
IOPIN -448 -416 In
FLAG -32 -832 I2
IOPIN -32 -832 In
FLAG -112 -816 I4
IOPIN -112 -816 In
FLAG -208 -800 I6
IOPIN -208 -800 In
FLAG -272 -784 I8
IOPIN -272 -784 In
FLAG -320 -768 I10
IOPIN -320 -768 In
FLAG -384 -752 I12
IOPIN -384 -752 In
FLAG -448 -736 I14
IOPIN -448 -736 In
FLAG -384 -400 I3
IOPIN -384 -400 In
FLAG -320 -384 I5
IOPIN -320 -384 In
FLAG -272 -368 I7
IOPIN -272 -368 In
FLAG -208 -352 I9
IOPIN -208 -352 In
FLAG -112 -336 I11
IOPIN -112 -336 In
FLAG -32 -320 I13
IOPIN -32 -320 In
FLAG 32 -304 I15
IOPIN 32 -304 In
FLAG 944 -896 Vpos
IOPIN 944 -896 In
FLAG 1152 -592 Vout
IOPIN 1152 -592 Out
FLAG 944 -256 Vneg
IOPIN 944 -256 In
SYMBOL HW5\\8x1_MUX 576 -816 R0
SYMATTR InstName X1
SYMBOL HW5\\8x1_MUX 576 -384 R0
SYMATTR InstName X2
SYMBOL HW5\\2x1_MUX 960 -592 R0
SYMATTR InstName X3
