Version 4
SHEET 1 1460 1648
WIRE 160 -256 64 -256
WIRE 512 -256 480 -256
WIRE 64 -128 64 -176
WIRE 64 -128 16 -128
WIRE 160 -112 160 -256
WIRE 160 -112 80 -112
WIRE -304 -64 -1360 -64
WIRE 144 -64 -304 -64
WIRE 576 -64 144 -64
WIRE 1456 -64 576 -64
WIRE 80 -16 80 -112
WIRE 368 -16 208 -16
WIRE 512 -16 512 -256
WIRE 960 -16 640 -16
WIRE 16 0 16 -128
WIRE 80 0 16 0
WIRE 480 0 480 -176
WIRE 512 0 480 0
WIRE 512 16 480 16
WIRE 144 64 -720 64
WIRE 576 64 144 64
WIRE 1120 64 576 64
WIRE 480 80 480 16
WIRE 80 144 80 16
WIRE 640 144 640 16
WIRE 640 144 80 144
WIRE 208 272 208 16
WIRE 208 272 -624 272
WIRE 368 336 368 -16
WIRE 560 336 368 336
WIRE -624 400 -624 272
WIRE -624 400 -1296 400
WIRE 336 416 256 416
WIRE 720 416 656 416
WIRE 672 496 656 496
WIRE -304 576 -304 -64
WIRE -304 576 -384 576
WIRE 400 576 -304 576
WIRE 784 576 400 576
WIRE 400 592 400 576
WIRE 784 592 784 576
WIRE 336 640 336 416
WIRE 544 640 464 640
WIRE 720 640 720 416
WIRE 944 640 848 640
WIRE 256 656 256 496
WIRE 336 656 256 656
WIRE 672 656 672 496
WIRE 720 656 672 656
WIRE -1360 672 -1360 -64
WIRE -1296 720 -1296 400
WIRE -1296 720 -1312 720
WIRE 400 720 16 720
WIRE 784 720 400 720
WIRE 1120 720 1120 64
WIRE 1120 720 784 720
WIRE -1424 736 -1664 736
WIRE -992 736 -1312 736
WIRE 720 784 720 672
WIRE 1232 784 720 784
WIRE 336 816 336 672
WIRE 848 816 848 672
WIRE 848 816 336 816
WIRE -992 848 -992 736
WIRE 464 848 464 672
WIRE 464 848 -992 848
WIRE 464 864 464 848
WIRE 528 1024 -608 1024
WIRE 928 1024 528 1024
WIRE 1232 1024 1232 912
WIRE 1232 1024 928 1024
WIRE 928 1104 928 1024
WIRE 944 1104 944 640
WIRE 960 1104 960 -16
WIRE 528 1120 528 1024
WIRE 544 1120 544 640
WIRE 560 1120 560 336
WIRE -1312 1136 -1312 752
WIRE -608 1136 -608 1024
WIRE -608 1136 -1312 1136
WIRE -304 1328 -304 576
WIRE 608 1328 608 1168
WIRE 608 1328 -304 1328
WIRE 1008 1328 1008 1152
WIRE 1008 1328 608 1328
WIRE 1456 1328 1456 -64
WIRE 1456 1328 1008 1328
WIRE -1360 1392 -1360 800
WIRE -720 1392 -720 64
WIRE -720 1392 -1360 1392
WIRE 16 1392 16 720
WIRE 16 1392 -720 1392
WIRE 480 1392 480 1168
WIRE 480 1392 16 1392
WIRE 880 1392 880 1152
WIRE 880 1392 480 1392
WIRE 1120 1392 1120 720
WIRE 1120 1392 880 1392
WIRE -720 1504 -720 1392
WIRE 544 1504 544 1232
WIRE 560 1504 544 1504
WIRE 944 1520 944 1216
WIRE 960 1520 944 1520
WIRE 560 1536 560 1504
WIRE 960 1536 960 1520
FLAG 480 -256 A0
IOPIN 480 -256 In
FLAG 480 -176 B0
IOPIN 480 -176 In
FLAG 64 -256 A1
IOPIN 64 -256 In
FLAG 64 -176 B1
IOPIN 64 -176 In
FLAG 480 80 0
FLAG 256 416 A1
IOPIN 256 416 In
FLAG 256 496 B1
IOPIN 256 496 In
FLAG 656 416 A0
IOPIN 656 416 In
FLAG 656 496 B0
IOPIN 656 496 In
FLAG 1232 912 Cin
IOPIN 1232 912 In
FLAG -1664 736 Cout
IOPIN -1664 736 Out
FLAG 560 1536 S1
IOPIN 560 1536 Out
FLAG 960 1536 S0
IOPIN 960 1536 Out
FLAG 1232 784 Cin1
IOPIN 1232 784 In
FLAG -2032 336 A1
IOPIN -2032 336 In
FLAG -1840 336 A0
IOPIN -1840 336 In
FLAG -2032 816 B1
IOPIN -2032 816 In
FLAG -1856 816 B0
IOPIN -1856 816 In
FLAG -2032 416 0
FLAG -1840 416 0
FLAG -1856 896 0
FLAG -2032 896 0
FLAG -1664 -96 Cin1
IOPIN -1664 -96 In
FLAG -1664 -16 0
FLAG -2256 816 Cin
IOPIN -2256 816 In
FLAG -2256 896 0
FLAG -720 1504 0
FLAG -1920 -112 Vdd
IOPIN -1920 -112 In
FLAG -1920 -32 0
FLAG -1360 -64 Vdd
IOPIN -1360 -64 In
SYMBOL HW5\\Fulladder 144 0 R0
SYMATTR InstName X1
SYMBOL HW5\\Fulladder 576 0 R0
SYMATTR InstName X2
SYMBOL HW5\\Fulladder 400 656 R0
SYMATTR InstName X7
SYMBOL HW5\\Fulladder 784 656 R0
SYMATTR InstName X8
SYMBOL HW5\\2x1_MUX 544 1184 R90
SYMATTR InstName X11
SYMBOL HW5\\2x1_MUX 944 1168 R90
SYMATTR InstName X12
SYMBOL HW5\\2x1_MUX -1376 736 M0
SYMATTR InstName X13
SYMBOL voltage -2032 320 R0
WINDOW 123 0 0 Left 0
WINDOW 39 0 0 Left 0
SYMATTR InstName V3
SYMATTR Value 3.3
SYMBOL voltage -1840 320 R0
WINDOW 123 0 0 Left 0
WINDOW 39 0 0 Left 0
SYMATTR InstName V4
SYMATTR Value 0
SYMBOL voltage -2032 800 R0
WINDOW 123 0 0 Left 0
WINDOW 39 0 0 Left 0
SYMATTR InstName V7
SYMATTR Value 0
SYMBOL voltage -1856 800 R0
WINDOW 123 0 0 Left 0
WINDOW 39 0 0 Left 0
SYMATTR InstName V8
SYMATTR Value 3.3
SYMBOL voltage -1664 -112 R0
WINDOW 123 0 0 Left 0
WINDOW 39 0 0 Left 0
SYMATTR InstName V9
SYMATTR Value 3.3
SYMBOL voltage -2256 800 R0
WINDOW 123 0 0 Left 0
WINDOW 39 0 0 Left 0
SYMATTR InstName V1
SYMATTR Value 0
SYMBOL voltage -1920 -128 R0
WINDOW 123 0 0 Left 0
WINDOW 39 0 0 Left 0
SYMATTR InstName V2
SYMATTR Value 3.3
TEXT -920 -296 Left 2 !.tran 8
