Version 4
SHEET 1 880 680
WIRE -16 -64 -128 -64
WIRE 64 -64 -16 -64
WIRE 176 -64 64 -64
WIRE 416 -64 176 -64
WIRE 16 -32 -208 -32
WIRE 320 -16 96 -16
WIRE 16 0 -96 0
WIRE 416 16 416 -64
WIRE 224 32 64 32
WIRE -128 80 -128 -64
WIRE -128 80 -256 80
WIRE 320 80 320 -16
WIRE 368 80 320 80
WIRE 368 96 96 96
WIRE -16 112 -16 -64
WIRE 64 112 -16 112
WIRE -64 176 -336 176
WIRE 64 192 64 112
WIRE 16 224 -16 224
WIRE -256 240 -256 80
WIRE 96 240 96 96
WIRE -64 256 -64 176
WIRE 16 256 -64 256
WIRE 224 288 224 32
WIRE 224 288 64 288
WIRE 416 288 416 144
WIRE 416 288 224 288
WIRE -336 304 -336 176
WIRE -336 304 -496 304
WIRE -96 304 -96 0
WIRE -96 304 -176 304
WIRE -16 352 -16 224
WIRE -144 384 -256 384
WIRE -144 448 -144 384
WIRE 112 448 -144 448
WIRE 224 448 224 288
WIRE 224 448 112 448
FLAG -208 -32 I0
IOPIN -208 -32 In
FLAG -16 352 I1
IOPIN -16 352 In
FLAG -496 304 S
IOPIN -496 304 In
FLAG 176 -64 Vpos
IOPIN 176 -64 In
FLAG 112 448 Vneg
IOPIN 112 448 In
FLAG 464 80 Vout
IOPIN 464 80 Out
SYMBOL HW5\\CMOS_AND 64 -16 R0
SYMATTR InstName X1
SYMBOL HW5\\Inverter -272 304 R0
SYMATTR InstName X2
SYMBOL HW5\\CMOS_AND 64 240 R0
SYMATTR InstName X3
SYMBOL HW5\\CMOS_OR 432 80 R0
SYMATTR InstName X4
