Version 4
SHEET 1 880 680
WIRE 208 16 208 -32
WIRE 208 16 80 16
WIRE 304 16 208 16
WIRE 80 64 80 16
WIRE 32 96 -48 96
WIRE 208 112 112 112
WIRE 304 112 304 16
WIRE 32 128 -16 128
WIRE 208 144 208 112
WIRE 256 144 208 144
WIRE 416 160 336 160
WIRE -16 176 -16 128
WIRE -16 176 -48 176
WIRE 256 176 144 176
WIRE 144 224 144 176
WIRE 144 224 -48 224
WIRE 80 256 80 160
WIRE 208 256 80 256
WIRE 304 256 304 208
WIRE 304 256 208 256
WIRE 208 320 208 256
FLAG -48 96 A
IOPIN -48 96 In
FLAG -48 176 B
IOPIN -48 176 In
FLAG -48 224 C
IOPIN -48 224 In
FLAG 416 160 Out
IOPIN 416 160 Out
FLAG 208 -32 Vpos
IOPIN 208 -32 In
FLAG 208 320 Vneg
IOPIN 208 320 In
SYMBOL HW5\\CMOS_AND 80 112 R0
SYMATTR InstName X1
SYMBOL HW5\\CMOS_AND 304 160 R0
SYMATTR InstName X2
