Version 4
SHEET 1 880 936
WIRE 288 48 176 48
WIRE 64 96 -96 96
WIRE 528 96 240 96
WIRE 64 112 -16 112
WIRE -16 128 -16 112
WIRE -16 128 -160 128
WIRE 352 160 176 160
WIRE 288 272 288 48
WIRE 288 272 176 272
WIRE 64 320 -96 320
WIRE 528 320 240 320
WIRE 64 336 -16 336
WIRE -16 352 -16 336
WIRE -16 352 -160 352
WIRE 352 368 352 160
WIRE 368 368 352 368
WIRE 368 384 368 368
WIRE 368 384 176 384
WIRE 288 512 288 272
WIRE 288 512 176 512
WIRE 64 560 -80 560
WIRE 528 560 240 560
WIRE 64 576 -16 576
WIRE -16 592 -16 576
WIRE -16 592 -144 592
WIRE 368 624 368 384
WIRE 368 624 176 624
WIRE 288 752 288 512
WIRE 288 752 176 752
WIRE 64 800 -80 800
WIRE 528 800 240 800
WIRE 64 816 16 816
WIRE 16 832 16 816
WIRE 16 832 -144 832
WIRE 368 864 368 624
WIRE 368 864 176 864
FLAG -96 96 A0
IOPIN -96 96 In
FLAG -160 128 B0
IOPIN -160 128 In
FLAG -96 320 A1
IOPIN -96 320 In
FLAG -160 352 B1
IOPIN -160 352 In
FLAG -80 560 A2
IOPIN -80 560 In
FLAG -144 592 B2
IOPIN -144 592 In
FLAG -80 800 A3
IOPIN -80 800 In
FLAG -144 832 B3
IOPIN -144 832 In
FLAG 528 96 S0
IOPIN 528 96 Out
FLAG 528 320 S1
IOPIN 528 320 Out
FLAG 528 560 S2
IOPIN 528 560 Out
FLAG 528 800 S3
IOPIN 528 800 Out
FLAG 288 48 Vpos
IOPIN 288 48 In
FLAG 368 864 Vneg
IOPIN 368 864 In
SYMBOL HW5\\CMOS_XOR 192 96 R0
SYMATTR InstName X1
SYMBOL HW5\\CMOS_XOR 192 320 R0
SYMATTR InstName X2
SYMBOL HW5\\CMOS_XOR 192 560 R0
SYMATTR InstName X3
SYMBOL HW5\\CMOS_XOR 192 800 R0
SYMATTR InstName X4
TEXT -1000 912 Left 2 !.tran 2
