Version 4
SHEET 1 880 680
WIRE 416 -160 208 -160
WIRE 160 -112 -48 -112
WIRE 160 -96 32 -96
WIRE 544 -96 272 -96
WIRE 32 -80 32 -96
WIRE 32 -80 -128 -80
WIRE 368 -32 208 -32
WIRE 416 48 416 -160
WIRE 416 48 208 48
WIRE 32 80 -48 80
WIRE 32 96 32 80
WIRE 160 96 32 96
WIRE 160 112 -128 112
WIRE 544 112 272 112
WIRE 368 176 368 -32
WIRE 368 176 208 176
WIRE 416 272 416 48
WIRE 416 272 208 272
WIRE 160 320 -48 320
WIRE 160 336 80 336
WIRE 544 336 272 336
WIRE 80 352 80 336
WIRE 80 352 -128 352
WIRE 368 400 368 176
WIRE 368 400 208 400
WIRE 416 464 416 272
WIRE 416 464 208 464
WIRE 160 512 -48 512
WIRE 160 528 16 528
WIRE 544 528 272 528
WIRE 16 544 16 528
WIRE 16 544 -128 544
WIRE 368 592 368 400
WIRE 368 592 208 592
FLAG -48 -112 A0
IOPIN -48 -112 In
FLAG -128 -80 B0
IOPIN -128 -80 In
FLAG -48 80 A1
IOPIN -48 80 In
FLAG -128 112 B1
IOPIN -128 112 In
FLAG -48 320 A2
IOPIN -48 320 In
FLAG -128 352 B2
IOPIN -128 352 In
FLAG -48 512 A3
IOPIN -48 512 In
FLAG -128 544 B3
IOPIN -128 544 In
FLAG 544 -96 S0
IOPIN 544 -96 Out
FLAG 544 112 S1
IOPIN 544 112 Out
FLAG 544 336 S2
IOPIN 544 336 Out
FLAG 544 528 S3
IOPIN 544 528 Out
FLAG 416 -160 Vpos
IOPIN 416 -160 In
FLAG 368 592 Vneg
IOPIN 368 592 In
SYMBOL HW5\\CMOS_XNOR 224 96 R0
SYMATTR InstName X1
SYMBOL HW5\\CMOS_XNOR 224 -112 R0
SYMATTR InstName X2
SYMBOL HW5\\CMOS_XNOR 224 320 R0
SYMATTR InstName X3
SYMBOL HW5\\CMOS_XNOR 224 512 R0
SYMATTR InstName X4
TEXT -1176 634 Left 2 !.tran 2
