Version 4
SHEET 1 1172 680
WIRE -240 -1136 -240 -1344
WIRE -224 -1136 -240 -1136
WIRE -1120 -960 -1120 -1344
WIRE -1104 -960 -1120 -960
WIRE -816 -960 -816 -1344
WIRE -800 -960 -816 -960
WIRE -512 -944 -512 -1344
WIRE -496 -944 -496 -960
WIRE -496 -944 -512 -944
WIRE -224 -896 -224 -1136
WIRE 768 -896 -224 -896
WIRE -496 -880 -496 -944
WIRE 464 -880 -496 -880
WIRE -800 -848 -800 -960
WIRE 160 -848 -800 -848
WIRE -1104 -784 -1104 -960
WIRE -128 -784 -1104 -784
WIRE 160 -784 160 -848
WIRE 208 -784 160 -784
WIRE 464 -784 464 -880
WIRE 512 -784 464 -784
WIRE 768 -784 768 -896
WIRE 816 -784 768 -784
WIRE 32 -592 -144 -592
WIRE 368 -592 192 -592
WIRE 640 -592 496 -592
WIRE 1024 -592 800 -592
WIRE -192 -544 -704 -544
WIRE 144 -544 -192 -544
WIRE 448 -544 144 -544
WIRE 752 -544 448 -544
WIRE 192 -496 192 -592
WIRE 208 -496 208 -784
WIRE 224 -496 224 -784
WIRE 496 -496 496 -592
WIRE 512 -496 512 -784
WIRE 528 -496 528 -784
WIRE 800 -496 800 -592
WIRE 816 -496 816 -784
WIRE 832 -496 832 -784
WIRE -144 -480 -144 -592
WIRE -128 -480 -128 -784
WIRE -112 -480 -112 -784
WIRE 144 -432 144 -544
WIRE 272 -432 272 -448
WIRE 448 -432 448 -544
WIRE 752 -432 752 -544
WIRE -192 -416 -192 -544
WIRE -144 -352 -432 -352
WIRE 32 -272 32 -592
WIRE 192 -272 192 -368
WIRE 192 -272 32 -272
WIRE 368 -272 368 -592
WIRE 496 -272 496 -368
WIRE 496 -272 368 -272
WIRE 640 -272 640 -592
WIRE 800 -272 800 -368
WIRE 800 -272 640 -272
WIRE -64 -240 -64 -416
WIRE 272 -240 272 -432
WIRE 272 -240 -64 -240
WIRE 576 -240 576 -432
WIRE 576 -240 272 -240
WIRE 880 -240 880 -432
WIRE 880 -240 576 -240
WIRE -432 -144 -432 -352
WIRE -112 -144 -112 -352
WIRE 224 -144 224 -368
WIRE 528 -144 528 -368
WIRE 832 -144 832 -368
FLAG -432 -144 Cout
IOPIN -432 -144 Out
FLAG -112 -144 S3
IOPIN -112 -144 Out
FLAG 224 -144 S2
IOPIN 224 -144 Out
FLAG 528 -144 S1
IOPIN 528 -144 Out
FLAG 832 -144 S0
IOPIN 832 -144 Out
FLAG -112 -784 A3
IOPIN -112 -784 In
FLAG 224 -784 A2
IOPIN 224 -784 In
FLAG 528 -784 A1
IOPIN 528 -784 In
FLAG 832 -784 A0
IOPIN 832 -784 In
FLAG 880 -240 Vpos
IOPIN 880 -240 In
FLAG -1120 -1344 B3
IOPIN -1120 -1344 In
FLAG -816 -1344 B2
IOPIN -816 -1344 In
FLAG -512 -1344 B1
IOPIN -512 -1344 In
FLAG -240 -1344 B0
IOPIN -240 -1344 In
FLAG -704 -544 Vneg
IOPIN -704 -544 In
FLAG 1024 -592 0
SYMBOL HW5\\Fulladder -128 -416 R90
SYMATTR InstName X1
SYMBOL HW5\\Fulladder 208 -432 R90
SYMATTR InstName X2
SYMBOL HW5\\Fulladder 512 -432 R90
SYMATTR InstName X3
SYMBOL HW5\\Fulladder 816 -432 R90
SYMATTR InstName X4
