Version 4
SHEET 1 1024 760
WIRE -624 -336 -688 -336
WIRE -368 -320 -384 -320
WIRE -112 -320 -128 -320
WIRE 160 -320 144 -320
WIRE -368 -272 -416 -272
WIRE -112 -272 -160 -272
WIRE 128 -272 96 -272
WIRE -672 -256 -720 -256
WIRE 288 -208 288 -256
WIRE 288 -208 224 -208
WIRE -320 -176 -560 -176
WIRE -64 -176 -320 -176
WIRE 224 -176 224 -208
WIRE 224 -176 -64 -176
WIRE 784 -176 224 -176
WIRE 224 -160 224 -176
WIRE -320 -144 -320 -176
WIRE -64 -144 -64 -176
WIRE -560 -128 -560 -176
WIRE 160 -112 160 -320
WIRE 368 -112 288 -112
WIRE -384 -96 -384 -320
WIRE -192 -96 -256 -96
WIRE -128 -96 -128 -320
WIRE 80 -96 0 -96
WIRE 128 -96 128 -272
WIRE 160 -96 128 -96
WIRE -624 -80 -624 -336
WIRE -448 -80 -496 -80
WIRE -416 -80 -416 -272
WIRE -384 -80 -416 -80
WIRE -160 -80 -160 -272
WIRE -128 -80 -160 -80
WIRE 96 -80 96 -192
WIRE 160 -80 96 -80
WIRE -672 -64 -672 -256
WIRE -624 -64 -672 -64
WIRE -400 -64 -400 -224
WIRE -384 -64 -400 -64
WIRE -144 -64 -144 -224
WIRE -128 -64 -144 -64
WIRE -720 -48 -720 -192
WIRE -624 -48 -720 -48
WIRE -320 0 -320 -16
WIRE -320 0 -560 0
WIRE -64 0 -64 -16
WIRE -64 0 -320 0
WIRE 224 0 224 -32
WIRE 224 0 -64 0
WIRE 512 0 224 0
WIRE -496 80 -496 -48
WIRE -496 80 -896 80
WIRE -256 128 -256 -64
WIRE -256 128 -544 128
WIRE -192 160 -192 -96
WIRE -192 160 -272 160
WIRE 0 192 0 -64
WIRE 0 192 -240 192
WIRE 288 192 288 -80
WIRE 288 192 112 192
WIRE 368 256 368 -112
WIRE 368 256 336 256
WIRE -448 272 -448 -80
WIRE -448 272 -592 272
WIRE 176 288 -176 288
WIRE 784 288 784 -176
WIRE 784 288 176 288
WIRE -480 304 -832 304
WIRE -176 304 -176 288
WIRE -176 304 -480 304
WIRE -832 320 -832 304
WIRE -480 336 -480 304
WIRE 112 336 112 192
WIRE 368 336 240 336
WIRE -240 352 -240 192
WIRE -48 352 -112 352
WIRE 80 352 80 -96
WIRE 112 352 80 352
WIRE -896 368 -896 80
WIRE -704 368 -768 368
WIRE -272 368 -272 160
WIRE -240 368 -272 368
WIRE 112 368 64 368
WIRE -896 384 -1040 384
WIRE -544 384 -544 128
WIRE -400 384 -416 384
WIRE -592 400 -592 272
WIRE -544 400 -592 400
WIRE -1040 432 -1040 384
WIRE 176 432 176 416
WIRE 176 432 -16 432
WIRE 512 432 512 0
WIRE 512 432 176 432
WIRE -704 464 -704 368
WIRE -704 464 -784 464
WIRE 64 496 64 368
WIRE -832 512 -832 448
WIRE -480 512 -480 464
WIRE -480 512 -832 512
WIRE -176 512 -176 432
WIRE -176 512 -480 512
WIRE -16 512 -16 432
WIRE -16 512 -176 512
WIRE -240 544 -240 384
WIRE 240 544 240 368
WIRE 240 544 -240 544
WIRE -896 560 -896 400
WIRE -416 560 -416 416
WIRE -416 560 -896 560
WIRE 368 576 368 336
WIRE 368 576 192 576
WIRE -768 608 -768 400
WIRE -768 608 -1056 608
WIRE -544 608 -544 416
WIRE -112 608 -112 384
WIRE -112 608 -544 608
WIRE 336 624 336 256
WIRE 368 624 336 624
WIRE -1056 640 -1056 608
WIRE -784 640 -784 464
WIRE -48 640 -48 352
WIRE -400 656 -400 384
WIRE 368 656 368 624
WIRE 192 672 192 576
FLAG 96 -272 B0
IOPIN 96 -272 In
FLAG 144 -320 A0
IOPIN 144 -320 In
FLAG -112 -320 A1
IOPIN -112 -320 In
FLAG -112 -272 B1
IOPIN -112 -272 In
FLAG -368 -320 A2
IOPIN -368 -320 In
FLAG -368 -272 B2
IOPIN -368 -272 In
FLAG -688 -336 A3
IOPIN -688 -336 In
FLAG -720 -256 B3
IOPIN -720 -256 In
FLAG -720 -192 C3
IOPIN -720 -192 In
FLAG -400 -224 C2
IOPIN -400 -224 In
FLAG -144 -224 C1
IOPIN -144 -224 In
FLAG 96 -192 C0
IOPIN 96 -192 In
FLAG 64 496 0
FLAG -1040 432 0
FLAG 192 672 S1
IOPIN 192 672 Out
FLAG -48 640 S2
IOPIN -48 640 Out
FLAG -400 656 S3
IOPIN -400 656 Out
FLAG -784 640 S4
IOPIN -784 640 Out
FLAG -1056 640 Cout
IOPIN -1056 640 Out
FLAG 512 432 0
FLAG 288 -256 Vdd
IOPIN 288 -256 In
FLAG 368 656 S0
IOPIN 368 656 Out
FLAG -1552 -544 A0
IOPIN -1552 -544 In
FLAG -1744 -544 A1
IOPIN -1744 -544 In
FLAG -1936 -544 A2
IOPIN -1936 -544 In
FLAG -2176 -544 A3
IOPIN -2176 -544 In
FLAG -1552 -320 B0
IOPIN -1552 -320 In
FLAG -1744 -304 B1
IOPIN -1744 -304 In
FLAG -1920 -288 B2
IOPIN -1920 -288 In
FLAG -2160 -304 B3
IOPIN -2160 -304 In
FLAG -1552 -80 C0
IOPIN -1552 -80 In
FLAG -1728 -64 C1
IOPIN -1728 -64 In
FLAG -1920 -48 C2
IOPIN -1920 -48 In
FLAG -2144 -64 c3
IOPIN -2144 -64 In
FLAG -1552 -464 0
FLAG -1744 -464 0
FLAG -1936 -464 0
FLAG -2176 -464 0
FLAG -1552 -240 0
FLAG -1552 0 0
FLAG -1728 16 0
FLAG -1744 -224 0
FLAG -1920 -208 0
FLAG -1920 32 0
FLAG -2160 -224 0
FLAG -2144 16 0
FLAG 832 -528 0
FLAG 832 -608 Vdd
IOPIN 832 -608 In
SYMBOL HW5\\Fulladder -560 -64 R0
SYMATTR InstName X1
SYMBOL HW5\\Fulladder -320 -80 R0
SYMATTR InstName X2
SYMBOL HW5\\Fulladder -64 -80 R0
SYMATTR InstName X3
SYMBOL HW5\\Fulladder 224 -96 R0
SYMATTR InstName X4
SYMBOL HW5\\Fulladder -832 384 R0
SYMATTR InstName X5
SYMBOL HW5\\Fulladder -480 400 R0
SYMATTR InstName X6
SYMBOL HW5\\Fulladder -176 368 R0
SYMATTR InstName X7
SYMBOL HW5\\Fulladder 176 352 R0
SYMATTR InstName X8
SYMBOL voltage -1552 -560 R0
WINDOW 123 0 0 Left 0
WINDOW 39 0 0 Left 0
SYMATTR InstName V1
SYMATTR Value 3.3
SYMBOL voltage -1552 -336 R0
WINDOW 123 0 0 Left 0
WINDOW 39 0 0 Left 0
SYMATTR InstName V2
SYMATTR Value 0
SYMBOL voltage -1552 -96 R0
WINDOW 123 0 0 Left 0
WINDOW 39 0 0 Left 0
SYMATTR InstName V3
SYMATTR Value 3.3
SYMBOL voltage -1744 -560 R0
WINDOW 123 0 0 Left 0
WINDOW 39 0 0 Left 0
SYMATTR InstName V4
SYMATTR Value 3.3
SYMBOL voltage -1744 -320 R0
WINDOW 123 0 0 Left 0
WINDOW 39 0 0 Left 0
SYMATTR InstName V5
SYMATTR Value 3.3
SYMBOL voltage -1728 -80 R0
WINDOW 123 0 0 Left 0
WINDOW 39 0 0 Left 0
SYMATTR InstName V6
SYMATTR Value 0
SYMBOL voltage -1936 -560 R0
WINDOW 123 0 0 Left 0
WINDOW 39 0 0 Left 0
SYMATTR InstName V7
SYMATTR Value 3.3
SYMBOL voltage -1920 -304 R0
WINDOW 123 0 0 Left 0
WINDOW 39 0 0 Left 0
SYMATTR InstName V8
SYMATTR Value 3.3
SYMBOL voltage -1920 -64 R0
WINDOW 123 0 0 Left 0
WINDOW 39 0 0 Left 0
SYMATTR InstName V9
SYMATTR Value 3.3
SYMBOL voltage -2176 -560 R0
WINDOW 123 0 0 Left 0
WINDOW 39 0 0 Left 0
SYMATTR InstName V10
SYMATTR Value 0
SYMBOL voltage -2160 -320 R0
WINDOW 123 0 0 Left 0
WINDOW 39 0 0 Left 0
SYMATTR InstName V11
SYMATTR Value 0
SYMBOL voltage -2144 -80 R0
WINDOW 123 0 0 Left 0
WINDOW 39 0 0 Left 0
SYMATTR InstName V12
SYMATTR Value 0
SYMBOL voltage 832 -624 R0
WINDOW 123 0 0 Left 0
WINDOW 39 0 0 Left 0
SYMATTR InstName V13
SYMATTR Value 3.3
TEXT -1464 216 Left 2 !.tran 8
