Version 4
SHEET 1 1540 1056
WIRE 832 32 240 32
WIRE 80 80 80 32
WIRE 192 80 80 80
WIRE 192 96 80 96
WIRE 784 96 304 96
WIRE 400 160 240 160
WIRE 688 160 400 160
WIRE 832 208 832 32
WIRE 976 208 832 208
WIRE 1168 208 976 208
WIRE 592 224 240 224
WIRE 832 224 832 208
WIRE 832 224 592 224
WIRE 80 272 64 272
WIRE 832 288 832 224
WIRE 240 304 240 224
WIRE 784 320 784 96
WIRE 1008 336 864 336
WIRE 80 352 80 272
WIRE 192 352 80 352
WIRE 192 368 0 368
WIRE 784 368 784 352
WIRE 784 368 304 368
WIRE 0 384 0 368
WIRE 400 432 400 160
WIRE 400 432 240 432
WIRE 688 448 688 160
WIRE 832 448 832 384
WIRE 832 448 688 448
WIRE 1168 448 1168 208
WIRE 592 480 592 224
WIRE 592 480 240 480
WIRE 1008 480 1008 336
WIRE 1120 480 1008 480
WIRE 1440 496 1200 496
WIRE 1120 512 1008 512
WIRE 976 544 976 208
WIRE 976 544 848 544
WIRE 80 560 -16 560
WIRE 240 560 240 480
WIRE 80 608 80 560
WIRE 192 608 80 608
WIRE 192 624 80 624
WIRE 800 624 304 624
WIRE 80 656 80 624
WIRE 80 656 -96 656
WIRE 848 656 848 544
WIRE 400 688 400 432
WIRE 400 688 240 688
WIRE 800 688 800 624
WIRE 1008 704 1008 512
WIRE 1008 704 880 704
WIRE 592 768 592 480
WIRE 592 768 240 768
WIRE 688 784 688 448
WIRE 848 784 848 752
WIRE 848 784 688 784
WIRE 1168 784 1168 544
WIRE 1168 784 848 784
WIRE 80 832 -80 832
WIRE 240 832 240 768
WIRE 80 880 80 832
WIRE 192 880 80 880
WIRE 192 896 80 896
WIRE 800 896 800 720
WIRE 800 896 304 896
WIRE 80 928 80 896
WIRE 80 928 -96 928
WIRE 400 960 400 688
WIRE 400 960 240 960
FLAG 80 32 A3
IOPIN 80 32 In
FLAG 80 96 B3
IOPIN 80 96 In
FLAG 64 272 A2
IOPIN 64 272 In
FLAG 0 384 B2
IOPIN 0 384 In
FLAG -16 560 A1
IOPIN -16 560 In
FLAG -96 656 B1
IOPIN -96 656 In
FLAG -80 832 A0
IOPIN -80 832 In
FLAG -96 928 B0
IOPIN -96 928 In
FLAG 1440 496 Out
IOPIN 1440 496 Out
FLAG 832 32 Vpos
IOPIN 832 32 In
FLAG 400 960 Vneg
IOPIN 400 960 In
SYMBOL HW5\\CMOS_XNOR 256 80 R0
SYMATTR InstName X1
SYMBOL HW5\\CMOS_XNOR 256 352 R0
SYMATTR InstName X2
SYMBOL HW5\\CMOS_XNOR 256 608 R0
SYMATTR InstName X3
SYMBOL HW5\\CMOS_XNOR 256 880 R0
SYMATTR InstName X4
SYMBOL HW5\\CMOS_AND 832 336 R0
SYMATTR InstName X5
SYMBOL HW5\\CMOS_AND 848 704 R0
SYMATTR InstName X6
SYMBOL HW5\\CMOS_AND 1168 496 R0
SYMATTR InstName X7
TEXT -1144 1040 Left 2 !.tran 4
