Version 4
SHEET 1 880 680
WIRE 304 64 176 64
WIRE 416 64 304 64
WIRE 128 96 16 96
WIRE 368 112 208 112
WIRE 128 128 16 128
WIRE 416 144 416 64
WIRE 272 160 176 160
WIRE 368 176 368 112
WIRE 544 192 448 192
WIRE 304 256 304 64
WIRE 304 256 176 256
WIRE 128 288 16 288
WIRE 368 304 368 208
WIRE 368 304 208 304
WIRE 128 320 16 320
WIRE 272 352 272 160
WIRE 272 352 176 352
WIRE 416 352 416 240
WIRE 416 352 272 352
FLAG 416 64 Vpos
IOPIN 416 64 In
FLAG 416 352 Vneg
IOPIN 416 352 In
FLAG 16 96 A
IOPIN 16 96 In
FLAG 16 128 B
IOPIN 16 128 In
FLAG 16 288 C
IOPIN 16 288 In
FLAG 16 320 D
IOPIN 16 320 In
FLAG 544 192 Vout
IOPIN 544 192 Out
SYMBOL HW5\\CMOS_AND 176 112 R0
SYMATTR InstName X1
SYMBOL HW5\\CMOS_AND 176 304 R0
SYMATTR InstName X2
SYMBOL HW5\\CMOS_AND 416 192 R0
SYMATTR InstName X3
