Version 4
SHEET 1 1344 904
WIRE 128 -192 128 -368
WIRE 128 -192 -16 -192
WIRE 400 -192 128 -192
WIRE -64 -144 -432 -144
WIRE -64 -128 -192 -128
WIRE 304 -128 48 -128
WIRE -192 -48 -192 -128
WIRE -192 -48 -432 -48
WIRE 400 -48 400 -192
WIRE 608 -48 400 -48
WIRE 400 48 400 -48
WIRE -160 64 -432 64
WIRE 304 96 304 -128
WIRE 352 96 304 96
WIRE -64 112 -64 -112
WIRE -64 112 -272 112
WIRE 352 112 48 112
WIRE 704 112 464 112
WIRE 720 112 704 112
WIRE -16 176 -16 -64
WIRE 176 176 -16 176
WIRE 400 176 176 176
WIRE -208 208 -432 208
WIRE 608 320 608 -48
WIRE 608 320 -16 320
WIRE -160 368 -160 64
WIRE -64 368 -160 368
WIRE -208 384 -208 208
WIRE -64 384 -208 384
WIRE 48 384 48 112
WIRE -272 400 -272 112
WIRE -64 400 -272 400
WIRE 64 448 -16 448
WIRE 176 448 176 176
WIRE 176 448 64 448
WIRE -272 528 -272 400
WIRE 352 528 352 128
WIRE 64 592 64 448
FLAG -272 528 S1
IOPIN -272 528 In
FLAG 352 528 S0
IOPIN 352 528 In
FLAG -432 -144 I0
IOPIN -432 -144 In
FLAG -432 -48 I1
IOPIN -432 -48 In
FLAG -432 64 I2
IOPIN -432 64 In
FLAG -432 208 I3
IOPIN -432 208 In
FLAG 704 112 Out
IOPIN 704 112 Out
FLAG 128 -368 Vpos
IOPIN 128 -368 In
FLAG 64 592 Vneg
IOPIN 64 592 In
SYMBOL HW5\\2x1_MUX 0 -128 R0
SYMATTR InstName X1
SYMBOL HW5\\2x1_MUX 0 384 R0
SYMATTR InstName X2
SYMBOL HW5\\2x1_MUX 416 112 R0
SYMATTR InstName X3
TEXT -1096 620 Left 2 !.tran 2
