Version 4
SHEET 1 880 680
WIRE 160 48 32 48
WIRE 144 80 64 80
WIRE 160 80 160 48
WIRE 336 80 176 80
WIRE 528 80 336 80
WIRE 112 112 -112 112
WIRE 112 128 -144 128
WIRE 400 128 208 128
WIRE 112 144 -176 144
WIRE 528 144 528 80
WIRE 528 144 352 144
WIRE 112 160 -208 160
WIRE 320 192 160 192
WIRE 528 192 528 144
WIRE 32 240 32 48
WIRE 32 240 -16 240
WIRE 400 240 400 128
WIRE 480 240 400 240
WIRE 480 256 400 256
WIRE 720 256 592 256
WIRE 64 272 64 80
WIRE 64 272 -48 272
WIRE 480 272 464 272
WIRE 32 288 32 240
WIRE 160 288 32 288
WIRE 64 320 64 272
WIRE 144 320 64 320
WIRE 160 320 160 288
WIRE 352 320 352 144
WIRE 352 320 176 320
WIRE 464 336 464 272
WIRE 112 352 -176 352
WIRE 112 368 -144 368
WIRE 400 368 400 256
WIRE 400 368 208 368
WIRE 112 384 -112 384
WIRE 112 400 -64 400
WIRE 320 432 320 192
WIRE 320 432 160 432
WIRE 528 432 528 320
WIRE 528 432 320 432
FLAG -48 272 S0
IOPIN -48 272 In
FLAG -16 240 S1
IOPIN -16 240 In
FLAG 464 336 S2
IOPIN 464 336 In
FLAG -112 112 I7
IOPIN -112 112 In
FLAG -144 128 I6
IOPIN -144 128 In
FLAG -176 144 I5
IOPIN -176 144 In
FLAG -208 160 I4
IOPIN -208 160 In
FLAG -176 352 I3
IOPIN -176 352 In
FLAG -144 368 I2
IOPIN -144 368 In
FLAG -112 384 I1
IOPIN -112 384 In
FLAG -64 400 I0
IOPIN -64 400 In
FLAG 336 80 Vpos
IOPIN 336 80 In
FLAG 720 256 Out
IOPIN 720 256 Out
FLAG 320 432 Vneg
IOPIN 320 432 In
SYMBOL HW5\\4x1_MUX 176 160 R0
SYMATTR InstName X1
SYMBOL HW5\\4x1_MUX 176 400 R0
SYMATTR InstName X2
SYMBOL HW5\\2x1_MUX 544 256 R0
SYMATTR InstName X3
