Version 4
SHEET 1 880 1004
WIRE -800 -480 -832 -480
WIRE -496 -480 -800 -480
WIRE 192 -256 192 -480
WIRE 192 -256 0 -256
WIRE -496 -208 -496 -480
WIRE -48 -208 -496 -208
WIRE -48 -192 -336 -192
WIRE 448 -192 64 -192
WIRE -544 -176 -912 -176
WIRE -192 -176 -192 -480
WIRE -48 -176 -192 -176
WIRE 240 -128 240 -480
WIRE 240 -128 0 -128
WIRE -544 -64 -544 -176
WIRE -544 -64 -624 -64
WIRE -144 -64 -544 -64
WIRE -336 64 -336 -192
WIRE -336 64 -624 64
WIRE 192 144 192 -256
WIRE 192 144 16 144
WIRE -144 192 -144 -64
WIRE -32 192 -144 192
WIRE -288 208 -624 208
WIRE -32 208 -288 208
WIRE 448 208 80 208
WIRE -192 224 -192 -176
WIRE -32 224 -192 224
WIRE 240 272 240 -128
WIRE 240 272 16 272
WIRE -400 320 -624 320
WIRE -800 464 -800 -480
WIRE -400 464 -400 320
WIRE -400 464 -800 464
WIRE 192 496 192 144
WIRE 192 496 16 496
WIRE -336 544 -336 64
WIRE -32 544 -336 544
WIRE -400 560 -400 464
WIRE -32 560 -400 560
WIRE 448 560 80 560
WIRE -912 576 -912 -176
WIRE -496 576 -496 560
WIRE -496 576 -912 576
WIRE -192 576 -192 224
WIRE -32 576 -192 576
WIRE 240 624 240 272
WIRE 240 624 16 624
WIRE 192 816 192 496
WIRE 192 816 16 816
WIRE -288 864 -288 208
WIRE -32 864 -288 864
WIRE -496 880 -496 576
WIRE -32 880 -496 880
WIRE 448 880 80 880
WIRE -192 896 -192 576
WIRE -32 896 -192 896
WIRE 240 944 240 624
WIRE 240 944 16 944
FLAG -624 208 A2
IOPIN -624 208 In
FLAG -624 320 A3
IOPIN -624 320 In
FLAG -624 64 A1
IOPIN -624 64 In
FLAG -624 -64 A0
IOPIN -624 -64 In
FLAG -192 -480 S
IOPIN -192 -480 In
FLAG 192 -480 Vpos
IOPIN 192 -480 In
FLAG 448 -192 H0
IOPIN 448 -192 Out
FLAG 448 208 H1
IOPIN 448 208 Out
FLAG 448 560 H2
IOPIN 448 560 Out
FLAG 448 880 H3
IOPIN 448 880 Out
FLAG 240 -480 Vneg
IOPIN 240 -480 In
SYMBOL HW5\\2x1_MUX 16 -192 R0
SYMATTR InstName X1
SYMBOL HW5\\2x1_MUX 32 208 R0
SYMATTR InstName X2
SYMBOL HW5\\2x1_MUX 32 560 R0
SYMATTR InstName X3
SYMBOL HW5\\2x1_MUX 32 880 R0
SYMATTR InstName X4
TEXT -1656 984 Left 2 !.tran 2
