Version 4
SHEET 1 880 680
WIRE 224 -32 192 -32
WIRE 256 -32 224 -32
WIRE 256 -16 256 -32
WIRE 544 -16 256 -16
WIRE 192 16 192 -32
WIRE 144 32 80 32
WIRE 256 64 256 -16
WIRE 256 64 192 64
WIRE 192 128 192 112
WIRE 272 128 192 128
WIRE 192 144 192 128
WIRE 144 160 80 160
WIRE 272 192 272 128
WIRE 272 192 192 192
WIRE 544 208 544 -16
WIRE 192 272 192 240
WIRE 464 272 192 272
WIRE 192 336 192 272
WIRE 192 336 96 336
WIRE 336 336 192 336
WIRE 176 384 96 384
WIRE 432 384 336 384
WIRE 48 416 0 416
WIRE 288 416 256 416
WIRE 96 464 96 432
WIRE 176 464 176 384
WIRE 176 464 96 464
WIRE 336 464 336 432
WIRE 432 464 432 384
WIRE 432 464 336 464
WIRE 96 496 96 464
WIRE 224 496 96 496
WIRE 336 496 336 464
WIRE 336 496 224 496
WIRE 224 560 224 496
WIRE 544 560 544 352
WIRE 544 560 224 560
FLAG 224 -32 Vpos
IOPIN 224 -32 In
FLAG 80 32 A
IOPIN 80 32 In
FLAG 80 160 B
IOPIN 80 160 In
FLAG 0 416 A
IOPIN 0 416 In
FLAG 256 416 B
IOPIN 256 416 In
FLAG 224 496 Vneg
IOPIN 224 496 In
FLAG 624 272 Vout
IOPIN 624 272 Out
SYMBOL pmos4 144 112 M180
SYMATTR InstName M1
SYMBOL pmos4 144 240 M180
SYMATTR InstName M2
SYMBOL nmos4 48 336 R0
SYMATTR InstName M3
SYMBOL nmos4 288 336 R0
SYMATTR InstName M4
SYMBOL HW5\\Inverter 528 272 R0
SYMATTR InstName X1
