Version 4
SHEET 1 880 680
WIRE -128 -16 -160 -16
WIRE 80 -16 -128 -16
WIRE 208 -16 80 -16
WIRE 384 -16 208 -16
WIRE 0 16 -112 16
WIRE -208 48 -288 48
WIRE -112 48 -112 16
WIRE 0 48 0 16
WIRE -208 64 -256 64
WIRE 384 96 384 -16
WIRE -288 112 -288 48
WIRE 160 160 160 48
WIRE 336 160 160 160
WIRE 560 160 432 160
WIRE -256 224 -256 64
WIRE -160 256 -160 112
WIRE 80 256 80 128
WIRE 80 256 -160 256
WIRE -128 288 -128 -16
WIRE -128 288 -160 288
WIRE 336 320 336 176
WIRE 336 320 16 320
WIRE -160 384 -160 288
WIRE -288 416 -288 112
WIRE -208 416 -288 416
WIRE 16 432 16 320
WIRE 16 432 -128 432
WIRE -256 448 -256 224
WIRE -208 448 -256 448
WIRE 80 480 80 256
WIRE 80 480 -160 480
WIRE 208 480 80 480
WIRE 384 480 384 224
WIRE 384 480 208 480
FLAG -288 112 A
IOPIN -288 112 In
FLAG -256 224 B
IOPIN -256 224 In
FLAG 560 160 Vout
IOPIN 560 160 Out
FLAG 208 -16 Vpos
IOPIN 208 -16 In
FLAG 208 480 Vneg
IOPIN 208 480 In
SYMBOL HW5\\CMOS_AND -160 432 R0
SYMATTR InstName X1
SYMBOL HW5\\CMOS_OR 400 160 R0
SYMATTR InstName X2
SYMBOL HW5\\CMOS_OR -144 48 R0
SYMATTR InstName X3
SYMBOL HW5\\Inverter 64 48 R0
SYMATTR InstName X4
