Version 4
SHEET 1 1076 1028
WIRE 144 0 -448 0
WIRE 240 0 144 0
WIRE 368 0 240 0
WIRE 528 0 368 0
WIRE 656 16 288 16
WIRE 1072 16 656 16
WIRE 144 32 144 0
WIRE 208 32 144 32
WIRE 368 32 368 0
WIRE 416 32 368 32
WIRE 144 64 144 32
WIRE 368 64 368 32
WIRE 96 80 -576 80
WIRE 288 80 288 16
WIRE 320 80 288 80
WIRE 928 80 736 80
WIRE 208 112 208 32
WIRE 208 112 144 112
WIRE 416 112 416 32
WIRE 416 112 368 112
WIRE 736 160 736 80
WIRE -448 192 -448 0
WIRE 144 192 144 160
WIRE 368 192 368 160
WIRE 368 192 144 192
WIRE 144 208 144 192
WIRE 192 208 144 208
WIRE 368 208 368 192
WIRE 432 208 368 208
WIRE 144 224 144 208
WIRE 368 224 368 208
WIRE 96 240 32 240
WIRE 320 240 304 240
WIRE 656 240 656 16
WIRE -576 256 -576 80
WIRE -576 256 -608 256
WIRE -528 256 -576 256
WIRE -48 256 -368 256
WIRE 32 256 32 240
WIRE 32 256 -48 256
WIRE 192 272 192 208
WIRE 192 272 144 272
WIRE 432 272 432 208
WIRE 432 272 368 272
WIRE 528 304 528 0
WIRE 640 304 528 304
WIRE 736 304 640 304
WIRE 304 384 304 240
WIRE 816 384 816 240
WIRE 816 384 304 384
WIRE 144 400 144 320
WIRE 256 400 144 400
WIRE 368 400 368 320
WIRE 368 400 256 400
WIRE 256 432 256 400
WIRE 560 432 256 432
WIRE 256 464 256 432
WIRE 256 464 32 464
WIRE 448 464 256 464
WIRE 640 464 640 304
WIRE -48 512 -48 256
WIRE 336 512 -48 512
WIRE 560 528 560 432
WIRE 32 544 32 464
WIRE 448 544 448 464
WIRE 96 592 32 592
WIRE 496 592 448 592
WIRE 928 608 928 80
WIRE 928 608 640 608
WIRE -576 624 -576 256
WIRE -16 624 -576 624
WIRE 336 624 336 512
WIRE 400 624 336 624
WIRE 720 656 720 528
WIRE 720 656 608 656
WIRE 448 672 448 640
WIRE 496 672 496 592
WIRE 496 672 448 672
WIRE 32 688 32 640
WIRE 96 688 96 592
WIRE 96 688 32 688
WIRE 608 704 608 656
WIRE 672 704 608 704
WIRE 688 704 672 704
WIRE 32 736 32 688
WIRE 448 736 448 672
WIRE 96 784 32 784
WIRE 544 784 448 784
WIRE -16 816 -48 816
WIRE 400 816 384 816
WIRE 448 848 448 832
WIRE 544 848 544 784
WIRE 544 848 448 848
WIRE 32 864 32 832
WIRE 96 864 96 784
WIRE 96 864 32 864
WIRE 384 864 384 816
WIRE 816 864 816 384
WIRE 816 864 384 864
WIRE 32 944 32 864
WIRE 256 944 32 944
WIRE 448 944 448 848
WIRE 448 944 256 944
WIRE -448 992 -448 336
WIRE 256 992 256 944
WIRE 256 992 -448 992
WIRE 928 992 928 608
WIRE 928 992 256 992
WIRE -48 1024 -48 816
WIRE 1072 1024 1072 16
WIRE 1072 1024 -48 1024
WIRE 0 0 0 0
FLAG -608 256 A
IOPIN -608 256 In
FLAG 816 240 B
IOPIN 816 240 In
FLAG 672 704 Vout
IOPIN 672 704 Out
FLAG 240 0 Vpos
IOPIN 240 0 In
FLAG 256 944 Vneg
IOPIN 256 944 In
SYMBOL pmos4 96 160 M180
SYMATTR InstName M1
SYMBOL pmos4 320 160 M180
SYMATTR InstName M2
SYMBOL pmos4 96 320 M180
SYMATTR InstName M3
SYMBOL pmos4 320 320 M180
SYMATTR InstName M4
SYMBOL nmos4 -16 544 R0
SYMATTR InstName M5
SYMBOL nmos4 -16 736 R0
SYMATTR InstName M6
SYMBOL nmos4 400 544 R0
SYMATTR InstName M7
SYMBOL nmos4 400 736 R0
SYMATTR InstName M8
SYMBOL HW5\\Inverter 752 240 R180
SYMATTR InstName X2
SYMBOL HW5\\Inverter -464 256 R0
SYMATTR InstName X1
SYMBOL HW5\\Inverter 624 528 R0
SYMATTR InstName X3
