Version 4
SHEET 1 1088 1004
WIRE 272 -240 -208 -240
WIRE 336 -240 272 -240
WIRE 800 -240 336 -240
WIRE -464 -96 -512 -96
WIRE -368 -96 -464 -96
WIRE -512 -80 -512 -96
WIRE -512 -80 -528 -80
WIRE -208 -80 -208 -240
WIRE -368 -32 -368 -96
WIRE -320 -32 -368 -32
WIRE -64 -32 -144 -32
WIRE 160 -32 -64 -32
WIRE -416 16 -512 16
WIRE -320 16 -320 -16
WIRE -320 16 -416 16
WIRE -336 112 -512 112
WIRE 272 112 272 -240
WIRE 160 160 160 -32
WIRE 464 160 336 160
WIRE 160 176 64 176
WIRE 416 224 272 224
WIRE -336 240 -336 112
WIRE 64 240 64 176
WIRE 64 240 -336 240
WIRE 528 320 256 320
WIRE 800 320 800 -240
WIRE 800 320 528 320
WIRE 800 368 800 320
WIRE 256 400 256 320
WIRE 64 432 64 240
WIRE 208 432 64 432
WIRE 752 432 608 432
WIRE 976 432 848 432
WIRE 608 448 608 432
WIRE 608 448 288 448
WIRE -64 464 -64 -32
WIRE 208 464 -64 464
WIRE 416 496 416 224
WIRE 416 496 256 496
WIRE 528 608 528 320
WIRE 528 608 256 608
WIRE 256 688 256 608
WIRE -464 720 -464 -96
WIRE 208 720 -464 720
WIRE 752 736 752 448
WIRE 752 736 288 736
WIRE -416 752 -416 16
WIRE 208 752 -416 752
WIRE 416 784 416 496
WIRE 416 784 256 784
WIRE 800 784 800 496
WIRE 800 784 416 784
WIRE -208 944 -208 32
WIRE 224 944 -208 944
WIRE 416 944 416 784
WIRE 416 944 224 944
FLAG -528 -80 A
IOPIN -528 -80 In
FLAG -512 16 B
IOPIN -512 16 In
FLAG -512 112 Cin
IOPIN -512 112 In
FLAG 464 160 Sum
IOPIN 464 160 Out
FLAG 976 432 Cout
IOPIN 976 432 Out
FLAG 336 -240 Vpos
IOPIN 336 -240 In
FLAG 224 944 Vneg
IOPIN 224 944 In
SYMBOL HW5\\CMOS_XOR -192 -32 R0
SYMATTR InstName X1
SYMBOL HW5\\CMOS_XOR 288 160 R0
SYMATTR InstName X2
SYMBOL HW5\\CMOS_AND 256 448 R0
SYMATTR InstName X3
SYMBOL HW5\\CMOS_AND 256 736 R0
SYMATTR InstName X4
SYMBOL HW5\\CMOS_OR 816 432 R0
SYMATTR InstName X5
