Version 4
SHEET 1 1544 1384
WIRE 112 -320 -480 -320
WIRE 976 -256 416 -256
WIRE -64 -192 -64 -224
WIRE -64 -192 -768 -192
WIRE 112 -192 112 -320
WIRE 912 -192 112 -192
WIRE 976 -192 976 -256
WIRE 1456 -192 976 -192
WIRE 112 -144 112 -192
WIRE -224 -112 -768 -112
WIRE -64 -112 -64 -192
WIRE 64 -112 -64 -112
WIRE 608 -96 144 -96
WIRE 912 -96 912 -192
WIRE 992 -96 912 -96
WIRE 64 -64 64 -80
WIRE 64 -64 -672 -64
WIRE 336 -48 112 -48
WIRE 912 -16 912 -96
WIRE 912 0 912 -16
WIRE -480 32 -480 -320
WIRE -320 32 -480 32
WIRE -480 48 -480 32
WIRE -224 48 -224 -112
WIRE 32 48 -224 48
WIRE 608 48 608 -96
WIRE 864 48 608 48
WIRE 1056 48 960 48
WIRE 864 64 544 64
WIRE -320 80 -320 32
WIRE -176 80 -320 80
WIRE 416 96 416 -256
WIRE 416 96 112 96
WIRE -672 112 -672 -64
WIRE -672 112 -768 112
WIRE -560 112 -672 112
WIRE -240 112 -400 112
WIRE 336 208 336 -48
WIRE 912 208 912 112
WIRE 912 208 336 208
WIRE 32 224 32 48
WIRE 32 224 -48 224
WIRE 192 224 32 224
WIRE -176 288 -176 80
WIRE 0 288 -176 288
WIRE 240 288 0 288
WIRE -48 320 -48 224
WIRE 192 320 192 224
WIRE 112 336 112 96
WIRE 112 336 32 336
WIRE 656 336 272 336
WIRE -240 352 -240 112
WIRE -48 352 -240 352
WIRE -480 384 -480 192
WIRE 0 384 -480 384
WIRE 240 384 0 384
WIRE 336 384 336 208
WIRE 336 384 240 384
WIRE -672 464 -672 112
WIRE 192 464 192 352
WIRE 192 464 -672 464
WIRE 992 496 992 -96
WIRE 992 496 896 496
WIRE 80 544 -960 544
WIRE 656 544 656 336
WIRE 848 544 656 544
WIRE 1056 544 944 544
WIRE 544 560 544 64
WIRE 544 560 144 560
WIRE 816 560 656 560
WIRE 848 560 848 544
WIRE 944 560 944 544
WIRE 816 576 816 560
WIRE 848 576 816 576
WIRE 896 624 896 608
WIRE 80 656 80 544
WIRE 80 656 -48 656
WIRE 224 656 80 656
WIRE 336 688 336 384
WIRE 896 688 896 624
WIRE 896 688 336 688
WIRE 1216 688 896 688
WIRE -176 736 -176 288
WIRE 0 736 -176 736
WIRE 272 736 0 736
WIRE -48 768 -48 656
WIRE 224 768 224 656
WIRE 144 784 144 560
WIRE 144 784 32 784
WIRE 544 784 304 784
WIRE -240 800 -240 352
WIRE -48 800 -240 800
WIRE 192 800 192 464
WIRE 224 800 192 800
WIRE 272 832 0 832
WIRE 336 832 336 688
WIRE 336 832 272 832
WIRE 656 976 656 560
WIRE 656 976 128 976
WIRE -176 992 -176 736
WIRE 0 992 -176 992
WIRE 544 1136 544 784
WIRE 1056 1136 544 1136
WIRE 0 1200 0 992
WIRE -240 1232 -240 800
WIRE -48 1232 -240 1232
WIRE 128 1248 128 976
WIRE 128 1248 32 1248
WIRE -48 1264 -768 1264
WIRE 336 1296 336 832
WIRE 336 1296 0 1296
FLAG -768 -112 A1
IOPIN -768 -112 In
FLAG -768 112 D
IOPIN -768 112 In
FLAG -768 -192 A0
IOPIN -768 -192 In
FLAG -960 544 A2
IOPIN -960 544 In
FLAG -768 1264 A3
IOPIN -768 1264 In
FLAG 1056 48 S1
IOPIN 1056 48 Out
FLAG 1056 544 S2
IOPIN 1056 544 Out
FLAG 1056 1136 S3
IOPIN 1056 1136 Out
FLAG 336 1296 0
FLAG -1744 -224 A0
IOPIN -1744 -224 In
FLAG -1488 -224 A1
IOPIN -1488 -224 In
FLAG -1232 -224 A2
IOPIN -1232 -224 In
FLAG -976 -224 A3
IOPIN -976 -224 In
FLAG -1744 -144 0
FLAG -1488 -144 0
FLAG -1232 -144 0
FLAG -976 -144 0
FLAG -1488 400 0
FLAG -1488 320 Vpos
IOPIN -1488 320 In
FLAG -1552 16 D
IOPIN -1552 16 In
FLAG -1552 96 0
FLAG 112 -320 Vpos
IOPIN 112 -320 In
FLAG 1456 -192 S0
IOPIN 1456 -192 Out
SYMBOL HW5\\CMOS_AND 272 784 R0
SYMATTR InstName X1
SYMBOL HW5\\CMOS_AND 240 336 R0
SYMATTR InstName X2
SYMBOL HW5\\CMOS_AND 0 784 R0
SYMATTR InstName X3
SYMBOL HW5\\CMOS_AND 0 1248 R0
SYMATTR InstName X4
SYMBOL HW5\\CMOS_AND 0 336 R0
SYMATTR InstName X5
SYMBOL HW5\\CMOS_AND 112 -96 R0
SYMATTR InstName X6
SYMBOL HW5\\Inverter -496 112 R0
SYMATTR InstName X10
SYMBOL voltage -1744 -240 R0
WINDOW 123 0 0 Left 0
WINDOW 39 0 0 Left 0
SYMATTR InstName V1
SYMATTR Value 3.3
SYMBOL voltage -1488 -240 R0
WINDOW 123 0 0 Left 0
WINDOW 39 0 0 Left 0
SYMATTR InstName V2
SYMATTR Value 0
SYMBOL voltage -1232 -240 R0
WINDOW 123 0 0 Left 0
WINDOW 39 0 0 Left 0
SYMATTR InstName V3
SYMATTR Value 3.3
SYMBOL voltage -976 -240 R0
WINDOW 123 0 0 Left 0
WINDOW 39 0 0 Left 0
SYMATTR InstName V4
SYMATTR Value 3.3
SYMBOL voltage -1488 304 R0
WINDOW 123 0 0 Left 0
WINDOW 39 0 0 Left 0
SYMATTR InstName V5
SYMATTR Value 3.3
SYMBOL voltage -1552 0 R0
WINDOW 123 0 0 Left 0
WINDOW 39 0 0 Left 0
SYMATTR InstName V6
SYMATTR Value 3.3
SYMBOL HW5\\CMOS_OR 928 48 R0
SYMATTR InstName X7
SYMBOL HW5\\CMOS_OR 912 560 R0
SYMATTR InstName X8
TEXT -1168 76 Left 2 !.tran 2
